LAMMPS (8 Feb 2023)
# pouring spheres into container box

units		lj
atom_style      sphere
boundary        f f f
dimension	3
comm_modify     vel yes

region          box block -10 10 -10 10 -10 10 units box
create_box      2 box
Created orthogonal box = (-10 -10 -10) to (10 10 10)

pair_style	hybrid gran/hooke 4000.0 NULL 100.0 NULL 0.5 1
pair_coeff	* * gran/hooke

region          container block -6 6 -6 6 -6 6 units box
fix		container all wall/gran/region hooke/history 		4000.0 NULL 100.0 NULL 0.5 1 region container

neighbor	0.3 bin
neigh_modify	delay 0 every 1 check yes

fix             2 all nve/sphere
fix		3 all gravity 1.0 vector 0 0 -1

region          slab block -2 2 -2 2 -2 2 units box
fix             ins all pour 100 2 4767548 vol 0.4 10 	        diam one 1.0 region slab ignore
Particle insertion: 48 every 566 steps, 100 by step 1133

timestep	0.005

compute         1 all temp
compute_modify  1 dynamic/dof yes

compute         2 all temp/sphere
compute_modify  2 dynamic/dof yes

thermo		100
thermo_style	custom step atoms temp c_1 c_2 press
thermo_modify   lost ignore
compute_modify  thermo_temp dynamic/dof yes

#dump		2 all image 100 image.*.jpg type type #		zoom 1.4 adiam 1.0 box no 0.0 axes yes 0.9 0.03
#dump_modify	2 pad 5

run	        5000
Generated 0 of 1 mixed pair_coeff terms from geometric mixing rule
Step        Atoms         Temp           c_1            c_2           Press
0           0   0              0              0              0
Averages over the last 26 of 51 rows, steps 2500 to 5000:
Atoms Temp c_1 c_2 Press
100 0.00312354 0.00312354 0.00258512 0.000149016
Loop time of 0.073938 on 1 procs for 5000 steps with 100 atoms

region          container delete
variable        theta equal (step-5000)*(4.0*PI/5000)
region          container block -6 6 -6 6 -6 6 units box                 rotate v_theta 0 0 0 0 0 1
run	        5000
Generated 0 of 1 mixed pair_coeff terms from geometric mixing rule
Step        Atoms         Temp           c_1            c_2           Press
5000         100   0.00031387148  0.00031387148  0.00039605781  2.6174978e-05
Averages over the last 26 of 51 rows, steps 7500 to 10000:
Atoms Temp c_1 c_2 Press
100 1.31726 1.31726 0.658341 0.0216242
Loop time of 0.213875 on 1 procs for 5000 steps with 100 atoms

region          container delete
region          container block -6 6 -6 6 -6 6 units box
run             5000
Generated 0 of 1 mixed pair_coeff terms from geometric mixing rule
Step        Atoms         Temp           c_1            c_2           Press
10000         100   1.3337897      1.3337897      0.66609803     0.022303323
Averages over the last 26 of 51 rows, steps 12500 to 15000:
Atoms Temp c_1 c_2 Press
100 0.00158943 0.00158943 0.00171994 5.30281e-05
Loop time of 0.0756704 on 1 procs for 5000 steps with 100 atoms

region          container delete
variable        theta equal (step-15000)*(4.0*PI/5000)
region          container block -6 6 -6 6 -6 6 units box                 rotate v_theta 0 0 0 1 1 1
run	        5000
Generated 0 of 1 mixed pair_coeff terms from geometric mixing rule
Step        Atoms         Temp           c_1            c_2           Press
15000         100   0.00070207518  0.00070207518  0.00077168127  2.0192237e-05
Averages over the last 26 of 51 rows, steps 17500 to 20000:
Atoms Temp c_1 c_2 Press
100 3.66939 3.66939 1.98095 0.0518798
Loop time of 0.167801 on 1 procs for 5000 steps with 100 atoms

region          container delete
region          container block -6 6 -6 6 -6 6 units box
run             5000
Generated 0 of 1 mixed pair_coeff terms from geometric mixing rule
Step        Atoms         Temp           c_1            c_2           Press
20000         100   3.8534401      3.8534401      2.0796496      0.057176513
Averages over the last 26 of 51 rows, steps 22500 to 25000:
Atoms Temp c_1 c_2 Press
100 0.00260538 0.00260538 0.00246123 0.000145677
Loop time of 0.0771328 on 1 procs for 5000 steps with 100 atoms
